16
Properties=species:S:1:pos:R:3:forces:R:3 energy=-13494.3353425776 is_mlp_minimum_acc_to_hessian=T is_mlp_minimum_acc_to_forces=F max_forces=0.1260658506991416 pbc="F F F"
O        0.51682555      -0.42083112       2.25129985       0.02516332       0.00578240      -0.02262630
O        2.62735663       0.39324471      -1.27261587       0.00446322      -0.00016189       0.00435958
O        2.81453982      -0.03564382       0.91257222       0.05068350      -0.00705966       0.04979777
C        0.61925682       0.04876922      -0.08392459      -0.02026522       0.01170003      -0.06767249
C       -0.12390988      -0.22172646       1.07952501       0.00385880      -0.01858962       0.09346771
C       -0.06642968       0.25242529      -1.28762687      -0.01660938      -0.00935161       0.03840446
C       -1.51979108      -0.28056873       1.00585371      -0.02100387       0.01095782      -0.06398451
C       -1.44927984       0.19378587      -1.35710062       0.05343390       0.02543977      -0.11131144
C       -2.17429432      -0.07511870      -0.19836843       0.04465985      -0.01220065       0.07037616
C        2.10370927       0.12037950      -0.05103885      -0.07273689      -0.00095557      -0.01381443
H        0.51554101       0.46058302      -2.17904491      -0.02976790      -0.00450761       0.01576451
H       -2.08954493      -0.49045576       1.90983520       0.02931161       0.00434909      -0.01408921
H       -1.95794492       0.35558821      -2.30244555      -0.00077664      -0.00206213       0.01240991
H       -3.25973426      -0.12557029      -0.23017621      -0.01245666      -0.00217886       0.01035412
H       -0.14373798      -0.59035635       2.93586899      -0.01875172      -0.00116074       0.00451293
H        3.58743777       0.41549541      -1.13261305      -0.01920616      -0.00000066      -0.00594929
16
Properties=species:S:1:pos:R:3:forces:R:3 energy=-13494.850570355366 is_mlp_minimum_acc_to_hessian=T is_mlp_minimum_acc_to_forces=F max_forces=0.2298825827665562 pbc="F F F"
O        0.27636377      -0.44521351       2.30906642       0.03232513      -0.00696405       0.04353497
O        2.62891802       0.35182659      -1.07104433      -0.04586233      -0.00515918       0.01377849
O        2.59980559      -0.08515841       1.11582297      -0.02362423       0.00959566      -0.05443525
C        0.51902713       0.03728091      -0.04985863      -0.06704116       0.00269468      -0.03129065
C       -0.25449748      -0.23209373       1.09823678      -0.07532310       0.00492942      -0.04469967
C       -0.11956570       0.24910983      -1.28272747      -0.11148165      -0.01696518       0.05569875
C       -1.65082196      -0.28297211       0.98416974       0.03238378       0.01197836      -0.05158818
C       -1.49499389       0.19714413      -1.38580676       0.17673099       0.03761169      -0.14211798
C       -2.25530197      -0.07112228      -0.23976991       0.04438949      -0.02701473       0.14742613
C        1.98090534       0.08985769       0.07305336       0.06961224      -0.01116231       0.07447220
H        0.49303179       0.45509404      -2.15506696      -0.03406852       0.00245337      -0.02134361
H       -2.22818675      -0.49165738       1.87940152       0.01963707      -0.00045009       0.00746163
H       -1.98114656       0.36199125      -2.34237529       0.00935451       0.00172087      -0.00616845
H       -3.33945250      -0.11415372      -0.31061449      -0.00538962      -0.00120043       0.00461169
H        1.25186115      -0.37702755       2.22482878      -0.00423908       0.00351664      -0.01878736
H        3.57405401       0.35709424      -0.84731572      -0.01740359      -0.00558471       0.02344741
16
Properties=species:S:1:pos:R:3:forces:R:3 energy=-13494.523677209685 is_mlp_minimum_acc_to_hessian=T is_mlp_minimum_acc_to_forces=F max_forces=0.23977485578620406 pbc="F F F"
O        0.24205842      -0.45116154       2.36666372       0.02806402       0.01188565      -0.01478561
O        2.86870357       0.40796385      -0.78046125       0.01996307       0.03210923      -0.06621569
O        2.60625398      -0.34499880       1.26916390      -0.01425303       0.04606941      -0.03017151
C        0.61216890      -0.01540732       0.01603370      -0.05158937       0.00814915      -0.17149830
C       -0.22368469      -0.22866293       1.13421462      -0.02372742      -0.01167613       0.07057905
C        0.01961272       0.16610341      -1.24523982      -0.07476285       0.00869262       0.08631647
C       -1.61666021      -0.20327968       0.96751601      -0.00002493       0.01663543      -0.07981390
C       -1.35130395       0.17448420      -1.40581939       0.14632584       0.06848779      -0.17717266
C       -2.16767586      -0.00300587      -0.28187100       0.04948711      -0.01709330       0.19337368
C        2.08041044      -0.00450825       0.22398917       0.05973426      -0.11096153       0.11584364
H        0.63898735       0.27139902      -2.13522338      -0.02519183      -0.00164323       0.01404017
H       -2.23408139      -0.35641527       1.84712082       0.00716513      -0.01091354       0.01115410
H       -1.78792041       0.30969998      -2.39029618       0.01290117      -0.03295490       0.00844295
H       -3.24893416       0.00594956      -0.39327459      -0.00212115      -0.00294811      -0.00539381
H        1.22293520      -0.50178203       2.30863451      -0.06587242      -0.00303327       0.01388683
H        2.33913010       0.77362166      -1.50115082      -0.06609779      -0.00080526       0.03141471
16
Properties=species:S:1:pos:R:3:forces:R:3 energy=-13494.396974349433 is_mlp_minimum_acc_to_hessian=T is_mlp_minimum_acc_to_forces=F max_forces=0.10435841424553342 pbc="F F F"
O        0.80778082      -0.35508157       1.99814402      -0.01671807       0.00481356      -0.02861118
O        2.61573054       0.46292910      -1.63452298       0.02432826      -0.00199666       0.01646686
O        2.95992976       0.05419741       0.51055727       0.04386844       0.00430632      -0.01004148
C        0.66441546       0.10174762      -0.33558006      -0.06694090       0.00371667      -0.03638208
C        0.03055616      -0.17409938       0.88302457       0.06233561       0.00902748      -0.02888203
C       -0.13708303       0.28424689      -1.46474167       0.05655598      -0.01424322       0.08654034
C       -1.35668886      -0.26289179       0.96229906      -0.03222033      -0.00026918      -0.00717130
C       -1.52001373       0.19829359      -1.39859460       0.02246848       0.00373489      -0.01282823
C       -2.12841304      -0.07677258      -0.17718089      -0.00724983      -0.00119436       0.00408483
C        2.15428019       0.22207771      -0.54620528      -0.00938813       0.00123366      -0.00867126
H        0.37240916       0.49707978      -2.39956383      -0.01146457       0.00232048      -0.01469485
H       -1.82906978      -0.47818749       1.91931653       0.00499253       0.00092255      -0.00331428
H       -2.12014529       0.34437630      -2.29148064      -0.00779796      -0.00226644       0.00932709
H       -3.21048968      -0.14798247      -0.10554549      -0.01070193      -0.00444225       0.01949245
H        0.25397433      -0.53733659       2.76757503      -0.00638217      -0.00423918       0.01961800
H        2.44282698      -0.13259654       1.31249897      -0.04568575      -0.00142430      -0.00493223
16
Properties=species:S:1:pos:R:3:forces:R:3 energy=-13494.655004483126 is_mlp_minimum_acc_to_hessian=T is_mlp_minimum_acc_to_forces=F max_forces=0.19689223082179755 pbc="F F F"
O        0.41065424      -0.41425642       2.18977593       0.03297860       0.00035494       0.00694766
O        2.58971549       0.40453730      -1.34653371       0.04986862       0.00817562      -0.02786473
O        2.64863727      -0.02838347       0.84386480      -0.04597928       0.00117496      -0.01807821
C        0.51161185       0.06765194      -0.20439622      -0.10193366      -0.03803944       0.16410083
C       -0.17512514      -0.20726644       0.99484969      -0.05036092       0.01853615      -0.10644937
C       -0.22383299       0.26380404      -1.38450645      -0.12026011      -0.00048473      -0.02940297
C       -1.57451693      -0.27755168       0.97741683       0.05997488       0.00332078      -0.00080693
C       -1.60211975       0.19312714      -1.39438511       0.15400316       0.02463412      -0.08298004
C       -2.27410411      -0.08045584      -0.19793928       0.03017998      -0.01871216       0.10199428
C        1.98082042       0.17021541      -0.33062468      -0.02055801       0.00187455      -0.01485813
H        0.33553739       0.47383110      -2.29148957      -0.02586742       0.00698740      -0.04195261
H       -2.08088482      -0.49062908       1.91375831       0.00639159      -0.00038973       0.00365224
H       -2.15474425       0.34745246      -2.31596933       0.01553085       0.00316131      -0.01176861
H       -3.35968105      -0.13992214      -0.18663235      -0.00669578      -0.00294298       0.01301429
H        1.37424379      -0.34433533       2.09365011       0.02937698       0.00672390      -0.02600063
H        3.59378859       0.06218102       0.63916103      -0.00664937      -0.01437464       0.07045330
16
Properties=species:S:1:pos:R:3:forces:R:3 energy=-13494.37206685453 is_mlp_minimum_acc_to_hessian=T is_mlp_minimum_acc_to_forces=F max_forces=0.11998843137322406 pbc="F F F"
O        0.66987476      -0.38133448       2.09175083       0.02345436       0.00353348      -0.01213596
O        2.57796615       0.43602722      -1.51891374      -0.01217372      -0.00716788       0.03380848
O        2.80258667       0.01784479       0.66057071       0.02791034       0.00134772       0.00189328
C        0.59208087       0.08120485      -0.25236227      -0.04053712      -0.01953001       0.08605832
C       -0.05526072      -0.19485741       0.96440937      -0.01097322       0.01795048      -0.08977771
C       -0.18627986       0.26853014      -1.39999297      -0.06566348       0.00189856      -0.02512217
C       -1.45180312      -0.27424553       0.99535413       0.01096676       0.00511965      -0.02204001
C       -1.56859895       0.18958076      -1.36799383       0.09893636       0.01825768      -0.06538713
C       -2.19945263      -0.08444637      -0.15646040       0.01438773      -0.01272154       0.06538415
C        2.06458507       0.19713276      -0.44611825      -0.03356052       0.00309570      -0.02855250
H        0.34213738       0.48009828      -2.32461199      -0.00993472       0.00169655      -0.01088130
H       -1.94892877      -0.48825335       1.94042263       0.02026987       0.00383457      -0.01340495
H       -2.14903266       0.33905584      -2.27315615       0.00270309      -0.00085610       0.00450391
H       -3.28324050      -0.15156793      -0.10477819      -0.01238290      -0.00321783       0.01339962
H        0.06036338      -0.55886864       2.82002623       0.01226899      -0.00659909       0.03510557
H        3.72235501       0.12467927       0.36594023      -0.02567188      -0.00664182       0.02714870
16
Properties=species:S:1:pos:R:3:forces:R:3 energy=-13494.027662484505 is_mlp_minimum_acc_to_hessian=T is_mlp_minimum_acc_to_forces=F max_forces=0.2334503524263167 pbc="F F F"
O        0.56901268      -0.35467360       2.27030356      -0.02415370       0.03140762      -0.07044917
O        2.85492555       0.68694887      -0.83245612       0.02613525       0.01087490      -0.04731483
O        2.81048593      -0.97882600       0.63535918       0.02477908      -0.01513350       0.01384711
C        0.70267922      -0.08253276      -0.07614086       0.04582691       0.03132445      -0.10716188
C       -0.07035285      -0.21557107       1.08762182      -0.05426121      -0.06787202       0.21667528
C        0.05577216       0.08774361      -1.30208372       0.05806470      -0.02524936      -0.00885701
C       -1.46270597      -0.16555520       0.99943320       0.05677061       0.01511658      -0.04294541
C       -1.33006082       0.12392422      -1.39307005      -0.02756716       0.09824727      -0.05352879
C       -2.08519379      -0.00155891      -0.23144157       0.02388549      -0.02072537       0.00816679
C        2.19915687      -0.18426631      -0.02319318      -0.08694286       0.03062199       0.00462080
H        0.65444026       0.15838051      -2.20846016      -0.03668705      -0.00341168       0.01143001
H       -2.05880390      -0.25752457       1.90583786       0.01397213       0.00621388      -0.01318679
H       -1.81369525       0.24222939      -2.35772654       0.00969574      -0.03951248       0.01761661
H       -3.17058317       0.02718931      -0.27913271      -0.00266139      -0.00234605      -0.00007651
H       -0.08589143      -0.42955340       2.97621206       0.00666282      -0.00878381       0.01046430
H        2.23081449       1.34364590      -1.17106277      -0.03351924      -0.04077272       0.06069979
